100
C	0.00000000000	 0.00000000000	 8.00000000000
C	-1.23205459100	 2.13398122800	 8.00000000000
C	-2.46410918200	 4.26796245600	 8.00000000000
C	-3.69616389300	 6.40194368400	 8.00000000000
C	-4.92821836500	 8.53592491100	 8.00000000000
C	2.46410918200	 0.00000000000	 8.00000000000
C	1.23205459100	 2.13398122800	 8.00000000000
C	0.00000000000	 4.26796245600	 8.00000000000
C	-1.23205471000	 6.40194368400	 8.00000000000
C	-2.46410918200	 8.53592491100	 8.00000000000
C	4.92821836500	 0.00000000000	 8.00000000000
C	3.69616365400	 2.13398122800	 8.00000000000
C	2.46410918200	 4.26796245600	 8.00000000000
C	1.23205447200	 6.40194368400	 8.00000000000
C	0.00000000000	 8.53592491100	 8.00000000000
C	7.39232778500	 0.00000000000	 8.00000000000
C	6.16027307500	 2.13398122800	 8.00000000000
C	4.92821884200	 4.26796245600	 8.00000000000
C	3.69616389300	 6.40194368400	 8.00000000000
C	2.46410942100	 8.53592491100	 8.00000000000
C	9.85643672900	 0.00000000000	 8.00000000000
C	8.62438201900	 2.13398122800	 8.00000000000
C	7.39232730900	 4.26796245600	 8.00000000000
C	6.16027259800	 6.40194368400	 8.00000000000
C	4.92821836500	 8.53592491100	 8.00000000000
C	0.00000000000	 0.00000000000	 11.21162796000
C	-2.46410925015	 0.00000003934	 11.21162796000
C	-4.92821850029	 0.00000007869	 11.21162796000
C	-7.39232781044	 0.00000001411	 11.21162796000
C	-9.85643700022	 0.00000015601	 11.21162796000
C	1.23205459100	 2.13398114931	 11.21162796000
C	-1.23205465915	 2.13398118866	 11.21162796000
C	-3.69616390929	 2.13398122800	 11.21162796000
C	-6.16027321894	 2.13398116429	 11.21162796000
C	-8.62438240872	 2.13398130619	 11.21162796000
C	2.46410918250	 4.26796229949	 11.21162796000
C	-0.00000012765	 4.26796223491	 11.21162796000
C	-2.46410931829	 4.26796237731	 11.21162796000
C	-4.92821862794	 4.26796231360	 11.21162796000
C	-7.39232781772	 4.26796245550	 11.21162796000
C	3.69616389250	 6.40194365491	 11.21162796000
C	1.23205458285	 6.40194359120	 11.21162796000
C	-1.23205448829	 6.40194394058	 11.21162796000
C	-3.69616391744	 6.40194366989	 11.21162796000
C	-6.16027310722	 6.40194381179	 11.21162796000
C	4.92821836450	 8.53592459811	 11.21162796000
C	2.46410905485	 8.53592453440	 11.21162796000
C	-0.00000025479	 8.53592447068	 11.21162796000
C	-2.46410956494	 8.53592440611	 11.21162796000
C	-4.92821863522	 8.53592475499	 11.21162796000
C	0.00000000000	 1.42265415200	 8.00000000000
C	-1.23205459100	 3.55663538000	 8.00000000000
C	-2.46410942100	 5.69061660800	 8.00000000000
C	-3.69616413100	 7.82459783600	 8.00000000000
C	-4.92821836500	 9.95857906300	 8.00000000000
C	2.46410942100	 1.42265415200	 8.00000000000
C	1.23205471000	 3.55663538000	 8.00000000000
C	0.00000000000	 5.69061660800	 8.00000000000
C	-1.23205471000	 7.82459783600	 8.00000000000
C	-2.46410894400	 9.95857906300	 8.00000000000
C	4.92821836500	 1.42265415200	 8.00000000000
C	3.69616365400	 3.55663538000	 8.00000000000
C	2.46410894400	 5.69061660800	 8.00000000000
C	1.23205423400	 7.82459783600	 8.00000000000
C	0.00000000000	 9.95857906300	 8.00000000000
C	7.39232778500	 1.42265415200	 8.00000000000
C	6.16027307500	 3.55663538000	 8.00000000000
C	4.92821836500	 5.69061660800	 8.00000000000
C	3.69616365400	 7.82459783600	 8.00000000000
C	2.46410942100	 9.95857906300	 8.00000000000
C	9.85643672900	 1.42265415200	 8.00000000000
C	8.62438201900	 3.55663538000	 8.00000000000
C	7.39232778500	 5.69061660800	 8.00000000000
C	6.16027307500	 7.82459783600	 8.00000000000
C	4.92821884200	 9.95857906300	 8.00000000000
C	0.00000003678	 1.42265421571	 11.21162796000
C	-2.46410927286	 1.42265415200	 11.21162796000
C	-4.92821846351	 1.42265429440	 11.21162796000
C	-7.39232777316	 1.42265423069	 11.21162796000
C	-9.85643667021	 1.42265392761	 11.21162796000
C	1.23205462828	 3.55663536589	 11.21162796000
C	-1.23205468186	 3.55663530131	 11.21162796000
C	-3.69616387251	 3.55663544371	 11.21162796000
C	-6.16027318216	 3.55663538000	 11.21162796000
C	-8.62438207871	 3.55663507779	 11.21162796000
C	2.46410921928	 5.69061651520	 11.21162796000
C	0.00000014814	 5.69061686458	 11.21162796000
C	-2.46410916201	 5.69061680000	 11.21162796000
C	-4.92821847166	 5.69061673629	 11.21162796000
C	-7.39232736871	 5.69061643321	 11.21162796000
C	3.69616416828	 7.82459828458	 11.21162796000
C	1.23205485814	 7.82459822001	 11.21162796000
C	-1.23205445151	 7.82459815629	 11.21162796000
C	-3.69616376116	 7.82459809258	 11.21162796000
C	-6.16027265821	 7.82459778950	 11.21162796000
C	4.92821840178	 9.95857881469	 11.21162796000
C	2.46410909164	 9.95857875011	 11.21162796000
C	-0.00000021801	 9.95857868640	 11.21162796000
C	-2.46410952766	 9.95857862268	 11.21162796000
C	-4.92821842471	 9.95857831961	 11.21162796000
